* NGSPICE file created from tt_um_mosbius.ext - technology: sky130A

.subckt sky130_fd_sc_hd__dfrtp_1 CLK D RESET_B VGND VPWR Q VNB VPB
X0 a_1217_47# a_27_47# a_1108_47# VNB sky130_fd_pr__nfet_01v8 ad=1.338e+11p pd=1.5e+06u as=1.422e+11p ps=1.51e+06u w=360000u l=150000u
X1 a_805_47# a_761_289# a_639_47# VNB sky130_fd_pr__nfet_01v8 ad=8.82e+10p pd=1.26e+06u as=2.802e+11p ps=2.2e+06u w=420000u l=150000u
X2 a_1108_47# a_193_47# a_761_289# VNB sky130_fd_pr__nfet_01v8 ad=0p pd=0u as=1.998e+11p ps=1.97e+06u w=360000u l=150000u
X3 a_1283_21# a_1108_47# a_1462_47# VNB sky130_fd_pr__nfet_01v8 ad=1.092e+11p pd=1.36e+06u as=1.281e+11p ps=1.45e+06u w=420000u l=150000u
X4 a_651_413# a_27_47# a_543_47# VPB sky130_fd_pr__pfet_01v8_hvt ad=3.402e+11p pd=3.3e+06u as=1.449e+11p ps=1.53e+06u w=420000u l=150000u
X5 VGND RESET_B a_805_47# VNB sky130_fd_pr__nfet_01v8 ad=1.0617e+12p pd=9.62e+06u as=0p ps=0u w=420000u l=150000u
X6 Q a_1283_21# VPWR VPB sky130_fd_pr__pfet_01v8_hvt ad=2.6e+11p pd=2.52e+06u as=1.2195e+12p ps=1.255e+07u w=1e+06u l=150000u
X7 VPWR CLK a_27_47# VPB sky130_fd_pr__pfet_01v8_hvt ad=0p pd=0u as=1.664e+11p ps=1.8e+06u w=640000u l=150000u
X8 a_448_47# D VPWR VPB sky130_fd_pr__pfet_01v8_hvt ad=1.302e+11p pd=1.46e+06u as=0p ps=0u w=420000u l=150000u
X9 a_761_289# a_543_47# VGND VNB sky130_fd_pr__nfet_01v8 ad=0p pd=0u as=0p ps=0u w=640000u l=150000u
X10 a_193_47# a_27_47# VGND VNB sky130_fd_pr__nfet_01v8 ad=1.092e+11p pd=1.36e+06u as=0p ps=0u w=420000u l=150000u
X11 a_1108_47# a_27_47# a_761_289# VPB sky130_fd_pr__pfet_01v8_hvt ad=1.176e+11p pd=1.4e+06u as=2.583e+11p ps=2.37e+06u w=420000u l=150000u
X12 a_543_47# a_27_47# a_448_47# VNB sky130_fd_pr__nfet_01v8 ad=1.188e+11p pd=1.38e+06u as=1.32e+11p ps=1.49e+06u w=360000u l=150000u
X13 a_1462_47# RESET_B VGND VNB sky130_fd_pr__nfet_01v8 ad=0p pd=0u as=0p ps=0u w=420000u l=150000u
X14 a_543_47# a_193_47# a_448_47# VPB sky130_fd_pr__pfet_01v8_hvt ad=0p pd=0u as=0p ps=0u w=420000u l=150000u
X15 a_448_47# D VGND VNB sky130_fd_pr__nfet_01v8 ad=0p pd=0u as=0p ps=0u w=420000u l=150000u
X16 VPWR a_1283_21# a_1270_413# VPB sky130_fd_pr__pfet_01v8_hvt ad=0p pd=0u as=1.134e+11p ps=1.38e+06u w=420000u l=150000u
X17 VPWR a_1108_47# a_1283_21# VPB sky130_fd_pr__pfet_01v8_hvt ad=0p pd=0u as=1.134e+11p ps=1.38e+06u w=420000u l=150000u
X18 a_1270_413# a_193_47# a_1108_47# VPB sky130_fd_pr__pfet_01v8_hvt ad=0p pd=0u as=0p ps=0u w=420000u l=150000u
X19 a_193_47# a_27_47# VPWR VPB sky130_fd_pr__pfet_01v8_hvt ad=1.664e+11p pd=1.8e+06u as=0p ps=0u w=640000u l=150000u
X20 a_1283_21# RESET_B VPWR VPB sky130_fd_pr__pfet_01v8_hvt ad=0p pd=0u as=0p ps=0u w=420000u l=150000u
X21 VPWR a_761_289# a_651_413# VPB sky130_fd_pr__pfet_01v8_hvt ad=0p pd=0u as=0p ps=0u w=420000u l=150000u
X22 Q a_1283_21# VGND VNB sky130_fd_pr__nfet_01v8 ad=1.69e+11p pd=1.82e+06u as=0p ps=0u w=650000u l=150000u
X23 a_639_47# a_193_47# a_543_47# VNB sky130_fd_pr__nfet_01v8 ad=0p pd=0u as=0p ps=0u w=360000u l=150000u
X24 VGND a_1283_21# a_1217_47# VNB sky130_fd_pr__nfet_01v8 ad=0p pd=0u as=0p ps=0u w=420000u l=150000u
X25 a_651_413# RESET_B VPWR VPB sky130_fd_pr__pfet_01v8_hvt ad=0p pd=0u as=0p ps=0u w=420000u l=150000u
X26 VGND CLK a_27_47# VNB sky130_fd_pr__nfet_01v8 ad=0p pd=0u as=1.092e+11p ps=1.36e+06u w=420000u l=150000u
X27 a_761_289# a_543_47# VPWR VPB sky130_fd_pr__pfet_01v8_hvt ad=0p pd=0u as=0p ps=0u w=840000u l=150000u
.ends

.subckt sky130_fd_sc_hd__and2_1 A B VGND VPWR X VNB VPB
X0 VPWR B a_59_75# VPB sky130_fd_pr__pfet_01v8_hvt ad=4.507e+11p pd=4.18e+06u as=1.134e+11p ps=1.38e+06u w=420000u l=150000u
X1 X a_59_75# VPWR VPB sky130_fd_pr__pfet_01v8_hvt ad=4.75e+11p pd=2.95e+06u as=0p ps=0u w=1e+06u l=150000u
X2 VGND B a_145_75# VNB sky130_fd_pr__nfet_01v8 ad=2.236e+11p pd=2.08e+06u as=1.134e+11p ps=1.38e+06u w=420000u l=150000u
X3 a_59_75# A VPWR VPB sky130_fd_pr__pfet_01v8_hvt ad=0p pd=0u as=0p ps=0u w=420000u l=150000u
X4 X a_59_75# VGND VNB sky130_fd_pr__nfet_01v8 ad=1.82e+11p pd=1.86e+06u as=0p ps=0u w=650000u l=150000u
X5 a_145_75# A a_59_75# VNB sky130_fd_pr__nfet_01v8 ad=0p pd=0u as=1.176e+11p ps=1.4e+06u w=420000u l=150000u
.ends

.subckt sky130_fd_pr__nfet_g5v0d10v5_SFRJCA a_n345_n500# a_n603_n588# a_661_n588#
+ a_n977_n500# a_n761_n588# a_n503_n500# a_129_n500# a_287_n500# a_n661_n500# a_919_n500#
+ a_445_n500# a_29_n588# a_n129_n588# a_603_n500# a_187_n588# a_n287_n588# a_761_n500#
+ a_819_n588# a_345_n588# a_n1111_n722# a_n29_n500# a_n919_n588# a_n187_n500# a_n445_n588#
+ a_503_n588# a_n819_n500#
X0 a_n819_n500# a_n919_n588# a_n977_n500# a_n1111_n722# sky130_fd_pr__nfet_g5v0d10v5 ad=1.45e+12p pd=1.058e+07u as=1.45e+12p ps=1.058e+07u w=5e+06u l=500000u
X1 a_n661_n500# a_n761_n588# a_n819_n500# a_n1111_n722# sky130_fd_pr__nfet_g5v0d10v5 ad=1.45e+12p pd=1.058e+07u as=0p ps=0u w=5e+06u l=500000u
X2 a_919_n500# a_819_n588# a_761_n500# a_n1111_n722# sky130_fd_pr__nfet_g5v0d10v5 ad=1.45e+12p pd=1.058e+07u as=1.45e+12p ps=1.058e+07u w=5e+06u l=500000u
X3 a_n187_n500# a_n287_n588# a_n345_n500# a_n1111_n722# sky130_fd_pr__nfet_g5v0d10v5 ad=1.45e+12p pd=1.058e+07u as=1.45e+12p ps=1.058e+07u w=5e+06u l=500000u
X4 a_761_n500# a_661_n588# a_603_n500# a_n1111_n722# sky130_fd_pr__nfet_g5v0d10v5 ad=0p pd=0u as=1.45e+12p ps=1.058e+07u w=5e+06u l=500000u
X5 a_287_n500# a_187_n588# a_129_n500# a_n1111_n722# sky130_fd_pr__nfet_g5v0d10v5 ad=1.45e+12p pd=1.058e+07u as=1.45e+12p ps=1.058e+07u w=5e+06u l=500000u
X6 a_n345_n500# a_n445_n588# a_n503_n500# a_n1111_n722# sky130_fd_pr__nfet_g5v0d10v5 ad=0p pd=0u as=1.45e+12p ps=1.058e+07u w=5e+06u l=500000u
X7 a_129_n500# a_29_n588# a_n29_n500# a_n1111_n722# sky130_fd_pr__nfet_g5v0d10v5 ad=0p pd=0u as=1.45e+12p ps=1.058e+07u w=5e+06u l=500000u
X8 a_445_n500# a_345_n588# a_287_n500# a_n1111_n722# sky130_fd_pr__nfet_g5v0d10v5 ad=1.45e+12p pd=1.058e+07u as=0p ps=0u w=5e+06u l=500000u
X9 a_n503_n500# a_n603_n588# a_n661_n500# a_n1111_n722# sky130_fd_pr__nfet_g5v0d10v5 ad=0p pd=0u as=0p ps=0u w=5e+06u l=500000u
X10 a_n29_n500# a_n129_n588# a_n187_n500# a_n1111_n722# sky130_fd_pr__nfet_g5v0d10v5 ad=0p pd=0u as=0p ps=0u w=5e+06u l=500000u
X11 a_603_n500# a_503_n588# a_445_n500# a_n1111_n722# sky130_fd_pr__nfet_g5v0d10v5 ad=0p pd=0u as=0p ps=0u w=5e+06u l=500000u
.ends

.subckt sky130_fd_pr__pfet_g5v0d10v5_CYUY46 a_1393_n1000# a_n1135_n1000# a_n503_n1000#
+ a_n345_n1000# a_n819_n1000# a_n1451_n1000# a_29_n1097# a_n187_n1000# a_n1293_n1000#
+ a_n661_n1000# a_n977_n1000# a_n129_n1097# a_n1235_n1097# a_n603_n1097# a_n1077_n1097#
+ a_503_n1097# a_n445_n1097# a_1135_n1097# a_n919_n1097# a_345_n1097# a_n287_n1097#
+ a_819_n1097# a_n1393_n1097# a_187_n1097# a_n761_n1097# a_129_n1000# a_661_n1097#
+ w_n1651_n1297# a_603_n1000# a_1293_n1097# a_1235_n1000# a_919_n1000# a_445_n1000#
+ a_977_n1097# a_1077_n1000# a_287_n1000# a_761_n1000# a_n29_n1000#
X0 a_129_n1000# a_29_n1097# a_n29_n1000# w_n1651_n1297# sky130_fd_pr__pfet_g5v0d10v5 ad=2.9e+12p pd=2.058e+07u as=2.9e+12p ps=2.058e+07u w=1e+07u l=500000u
X1 a_445_n1000# a_345_n1097# a_287_n1000# w_n1651_n1297# sky130_fd_pr__pfet_g5v0d10v5 ad=2.9e+12p pd=2.058e+07u as=2.9e+12p ps=2.058e+07u w=1e+07u l=500000u
X2 a_n977_n1000# a_n1077_n1097# a_n1135_n1000# w_n1651_n1297# sky130_fd_pr__pfet_g5v0d10v5 ad=2.9e+12p pd=2.058e+07u as=2.9e+12p ps=2.058e+07u w=1e+07u l=500000u
X3 a_n503_n1000# a_n603_n1097# a_n661_n1000# w_n1651_n1297# sky130_fd_pr__pfet_g5v0d10v5 ad=2.9e+12p pd=2.058e+07u as=2.9e+12p ps=2.058e+07u w=1e+07u l=500000u
X4 a_1077_n1000# a_977_n1097# a_919_n1000# w_n1651_n1297# sky130_fd_pr__pfet_g5v0d10v5 ad=2.9e+12p pd=2.058e+07u as=2.9e+12p ps=2.058e+07u w=1e+07u l=500000u
X5 a_n29_n1000# a_n129_n1097# a_n187_n1000# w_n1651_n1297# sky130_fd_pr__pfet_g5v0d10v5 ad=0p pd=0u as=2.9e+12p ps=2.058e+07u w=1e+07u l=500000u
X6 a_603_n1000# a_503_n1097# a_445_n1000# w_n1651_n1297# sky130_fd_pr__pfet_g5v0d10v5 ad=2.9e+12p pd=2.058e+07u as=0p ps=0u w=1e+07u l=500000u
X7 a_n1135_n1000# a_n1235_n1097# a_n1293_n1000# w_n1651_n1297# sky130_fd_pr__pfet_g5v0d10v5 ad=0p pd=0u as=2.9e+12p ps=2.058e+07u w=1e+07u l=500000u
X8 a_1235_n1000# a_1135_n1097# a_1077_n1000# w_n1651_n1297# sky130_fd_pr__pfet_g5v0d10v5 ad=2.9e+12p pd=2.058e+07u as=0p ps=0u w=1e+07u l=500000u
X9 a_n819_n1000# a_n919_n1097# a_n977_n1000# w_n1651_n1297# sky130_fd_pr__pfet_g5v0d10v5 ad=2.9e+12p pd=2.058e+07u as=0p ps=0u w=1e+07u l=500000u
X10 a_n661_n1000# a_n761_n1097# a_n819_n1000# w_n1651_n1297# sky130_fd_pr__pfet_g5v0d10v5 ad=0p pd=0u as=0p ps=0u w=1e+07u l=500000u
X11 a_919_n1000# a_819_n1097# a_761_n1000# w_n1651_n1297# sky130_fd_pr__pfet_g5v0d10v5 ad=0p pd=0u as=2.9e+12p ps=2.058e+07u w=1e+07u l=500000u
X12 a_n187_n1000# a_n287_n1097# a_n345_n1000# w_n1651_n1297# sky130_fd_pr__pfet_g5v0d10v5 ad=0p pd=0u as=2.9e+12p ps=2.058e+07u w=1e+07u l=500000u
X13 a_761_n1000# a_661_n1097# a_603_n1000# w_n1651_n1297# sky130_fd_pr__pfet_g5v0d10v5 ad=0p pd=0u as=0p ps=0u w=1e+07u l=500000u
X14 a_287_n1000# a_187_n1097# a_129_n1000# w_n1651_n1297# sky130_fd_pr__pfet_g5v0d10v5 ad=0p pd=0u as=0p ps=0u w=1e+07u l=500000u
X15 a_1393_n1000# a_1293_n1097# a_1235_n1000# w_n1651_n1297# sky130_fd_pr__pfet_g5v0d10v5 ad=2.9e+12p pd=2.058e+07u as=0p ps=0u w=1e+07u l=500000u
X16 a_n1293_n1000# a_n1393_n1097# a_n1451_n1000# w_n1651_n1297# sky130_fd_pr__pfet_g5v0d10v5 ad=0p pd=0u as=2.9e+12p ps=2.058e+07u w=1e+07u l=500000u
X17 a_n345_n1000# a_n445_n1097# a_n503_n1000# w_n1651_n1297# sky130_fd_pr__pfet_g5v0d10v5 ad=0p pd=0u as=0p ps=0u w=1e+07u l=500000u
.ends

.subckt tt_small_inv a_784_5118# w_668_4844# a_702_5208# a_850_4880#
X0 a_850_4880# a_784_5118# a_702_5208# a_702_5208# sky130_fd_pr__nfet_01v8 ad=1.134e+11p pd=1.38e+06u as=1.26e+11p ps=1.44e+06u w=420000u l=150000u
X1 a_850_4880# a_784_5118# w_668_4844# w_668_4844# sky130_fd_pr__pfet_01v8_hvt ad=2.7e+11p pd=2.54e+06u as=2.9e+11p ps=2.58e+06u w=1e+06u l=150000u
.ends

.subckt tt_lvl_shift a_104_388# a_104_n470# a_580_n536# w_n2_n278# a_580_338# a_222_n448#
+ a_222_128#
X0 w_n2_n278# a_122_102# a_222_128# w_n2_n278# sky130_fd_pr__pfet_g5v0d10v5 ad=4.872e+11p pd=5.68e+06u as=1.218e+11p ps=1.42e+06u w=420000u l=500000u
X1 a_122_n348# a_580_n536# a_104_n470# a_104_n470# sky130_fd_pr__nfet_g5v0d10v5 ad=1.218e+11p pd=1.42e+06u as=8.4e+11p ps=5.68e+06u w=420000u l=500000u
X2 a_538_128# a_122_102# w_n2_n278# w_n2_n278# sky130_fd_pr__pfet_g5v0d10v5 ad=8.82e+10p pd=1.26e+06u as=0p ps=0u w=420000u l=500000u
X3 a_122_102# a_122_n348# a_538_128# w_n2_n278# sky130_fd_pr__pfet_g5v0d10v5 ad=1.218e+11p pd=1.42e+06u as=0p ps=0u w=420000u l=500000u
X4 a_222_128# a_122_102# w_n2_n278# w_n2_n278# sky130_fd_pr__pfet_g5v0d10v5 ad=0p pd=0u as=0p ps=0u w=420000u l=500000u
X5 a_538_n212# a_122_n348# w_n2_n278# w_n2_n278# sky130_fd_pr__pfet_g5v0d10v5 ad=8.82e+10p pd=1.26e+06u as=0p ps=0u w=420000u l=500000u
X6 w_n2_n278# a_122_n348# a_222_n448# w_n2_n278# sky130_fd_pr__pfet_g5v0d10v5 ad=0p pd=0u as=1.218e+11p ps=1.42e+06u w=420000u l=500000u
X7 a_122_n348# a_122_102# a_538_n212# w_n2_n278# sky130_fd_pr__pfet_g5v0d10v5 ad=1.218e+11p pd=1.42e+06u as=0p ps=0u w=420000u l=500000u
X8 a_104_n470# a_122_n348# a_222_n448# a_104_n470# sky130_fd_pr__nfet_g5v0d10v5 ad=0p pd=0u as=1.218e+11p ps=1.42e+06u w=420000u l=500000u
X9 a_104_n470# a_122_102# a_222_128# a_104_n470# sky130_fd_pr__nfet_g5v0d10v5 ad=0p pd=0u as=1.218e+11p ps=1.42e+06u w=420000u l=500000u
X10 a_222_n448# a_122_n348# w_n2_n278# w_n2_n278# sky130_fd_pr__pfet_g5v0d10v5 ad=0p pd=0u as=0p ps=0u w=420000u l=500000u
X11 a_122_102# a_580_338# a_104_n470# a_104_n470# sky130_fd_pr__nfet_g5v0d10v5 ad=1.218e+11p pd=1.42e+06u as=0p ps=0u w=420000u l=500000u
.ends

.subckt tt_asw_3v3 VDPWR VAPWR ctrl mod bus VGND
Xsky130_fd_pr__nfet_g5v0d10v5_SFRJCA_0 mod m1_652_3585# m1_652_3585# mod m1_652_3585#
+ bus bus mod mod mod bus m1_652_3585# m1_652_3585# mod m1_652_3585# m1_652_3585#
+ bus m1_652_3585# m1_652_3585# VGND mod m1_652_3585# bus m1_652_3585# m1_652_3585#
+ bus sky130_fd_pr__nfet_g5v0d10v5_SFRJCA
Xsky130_fd_pr__pfet_g5v0d10v5_CYUY46_0 mod mod mod bus mod mod m1_164_2388# mod bus
+ bus bus m1_164_2388# m1_164_2388# m1_164_2388# m1_164_2388# m1_164_2388# m1_164_2388#
+ m1_164_2388# m1_164_2388# m1_164_2388# m1_164_2388# m1_164_2388# m1_164_2388# m1_164_2388#
+ m1_164_2388# mod m1_164_2388# VAPWR bus m1_164_2388# bus bus mod m1_164_2388# mod
+ bus mod bus sky130_fd_pr__pfet_g5v0d10v5_CYUY46
Xtt_small_inv_0 ctrl VDPWR VGND m1_48_2796# tt_small_inv
Xtt_lvl_shift_0 VGND VGND ctrl VAPWR m1_48_2796# m1_652_3585# m1_164_2388# tt_lvl_shift
.ends

.subckt sky130_fd_sc_hd__clkinv_1 A VGND VPWR Y VNB VPB
X0 Y A VPWR VPB sky130_fd_pr__pfet_01v8_hvt ad=2.268e+11p pd=2.22e+06u as=4.536e+11p ps=4.44e+06u w=840000u l=150000u
X1 VGND A Y VNB sky130_fd_pr__nfet_01v8 ad=1.197e+11p pd=1.41e+06u as=1.092e+11p ps=1.36e+06u w=420000u l=150000u
X2 VPWR A Y VPB sky130_fd_pr__pfet_01v8_hvt ad=0p pd=0u as=0p ps=0u w=840000u l=150000u
.ends

.subckt mosbius_col7 X tt_asw_3v3_4/mod tt_asw_3v3_5/bus tt_asw_3v3_1/mod tt_asw_3v3_2/bus
+ tt_asw_3v3_5/mod tt_asw_3v3_2/mod tt_asw_3v3_7/VAPWR tt_asw_3v3_3/bus tt_asw_3v3_0/bus
+ sky130_fd_sc_hd__clkinv_1_0/A tt_asw_3v3_7/bus tt_asw_3v3_3/mod sky130_fd_sc_hd__dfrtp_1_6/D
+ tt_asw_3v3_4/bus tt_asw_3v3_0/mod sky130_fd_sc_hd__and2_1_6/A sky130_fd_sc_hd__and2_1_6/B
+ tt_asw_3v3_1/bus tt_asw_3v3_7/ctrl sky130_fd_sc_hd__dfrtp_1_6/RESET_B tt_asw_3v3_7/mod
+ tt_asw_3v3_7/VDPWR VSUBS
Xsky130_fd_sc_hd__dfrtp_1_0 sky130_fd_sc_hd__clkinv_1_0/Y sky130_fd_sc_hd__and2_1_5/A
+ sky130_fd_sc_hd__dfrtp_1_6/RESET_B VSUBS tt_asw_3v3_7/VDPWR sky130_fd_sc_hd__and2_1_1/A
+ VSUBS tt_asw_3v3_7/VDPWR sky130_fd_sc_hd__dfrtp_1
Xsky130_fd_sc_hd__dfrtp_1_1 sky130_fd_sc_hd__clkinv_1_0/Y sky130_fd_sc_hd__and2_1_1/A
+ sky130_fd_sc_hd__dfrtp_1_6/RESET_B VSUBS tt_asw_3v3_7/VDPWR sky130_fd_sc_hd__and2_1_6/A
+ VSUBS tt_asw_3v3_7/VDPWR sky130_fd_sc_hd__dfrtp_1
Xsky130_fd_sc_hd__dfrtp_1_2 sky130_fd_sc_hd__clkinv_1_0/Y sky130_fd_sc_hd__and2_1_0/A
+ sky130_fd_sc_hd__dfrtp_1_6/RESET_B VSUBS tt_asw_3v3_7/VDPWR sky130_fd_sc_hd__and2_1_4/A
+ VSUBS tt_asw_3v3_7/VDPWR sky130_fd_sc_hd__dfrtp_1
Xsky130_fd_sc_hd__dfrtp_1_3 sky130_fd_sc_hd__clkinv_1_0/Y sky130_fd_sc_hd__and2_1_4/A
+ sky130_fd_sc_hd__dfrtp_1_6/RESET_B VSUBS tt_asw_3v3_7/VDPWR sky130_fd_sc_hd__and2_1_5/A
+ VSUBS tt_asw_3v3_7/VDPWR sky130_fd_sc_hd__dfrtp_1
Xsky130_fd_sc_hd__and2_1_0 sky130_fd_sc_hd__and2_1_0/A sky130_fd_sc_hd__and2_1_6/B
+ VSUBS tt_asw_3v3_7/VDPWR tt_asw_3v3_3/ctrl VSUBS tt_asw_3v3_7/VDPWR sky130_fd_sc_hd__and2_1
Xsky130_fd_sc_hd__dfrtp_1_4 sky130_fd_sc_hd__clkinv_1_0/Y sky130_fd_sc_hd__and2_1_2/A
+ sky130_fd_sc_hd__dfrtp_1_6/RESET_B VSUBS tt_asw_3v3_7/VDPWR sky130_fd_sc_hd__and2_1_0/A
+ VSUBS tt_asw_3v3_7/VDPWR sky130_fd_sc_hd__dfrtp_1
Xsky130_fd_sc_hd__and2_1_1 sky130_fd_sc_hd__and2_1_1/A sky130_fd_sc_hd__and2_1_6/B
+ VSUBS tt_asw_3v3_7/VDPWR tt_asw_3v3_0/ctrl VSUBS tt_asw_3v3_7/VDPWR sky130_fd_sc_hd__and2_1
Xsky130_fd_sc_hd__dfrtp_1_6 sky130_fd_sc_hd__clkinv_1_0/Y sky130_fd_sc_hd__dfrtp_1_6/D
+ sky130_fd_sc_hd__dfrtp_1_6/RESET_B VSUBS tt_asw_3v3_7/VDPWR sky130_fd_sc_hd__and2_1_3/A
+ VSUBS tt_asw_3v3_7/VDPWR sky130_fd_sc_hd__dfrtp_1
Xsky130_fd_sc_hd__dfrtp_1_5 sky130_fd_sc_hd__clkinv_1_0/Y sky130_fd_sc_hd__and2_1_3/A
+ sky130_fd_sc_hd__dfrtp_1_6/RESET_B VSUBS tt_asw_3v3_7/VDPWR sky130_fd_sc_hd__and2_1_2/A
+ VSUBS tt_asw_3v3_7/VDPWR sky130_fd_sc_hd__dfrtp_1
Xsky130_fd_sc_hd__and2_1_2 sky130_fd_sc_hd__and2_1_2/A sky130_fd_sc_hd__and2_1_6/B
+ VSUBS tt_asw_3v3_7/VDPWR tt_asw_3v3_2/ctrl VSUBS tt_asw_3v3_7/VDPWR sky130_fd_sc_hd__and2_1
Xsky130_fd_sc_hd__and2_1_3 sky130_fd_sc_hd__and2_1_3/A sky130_fd_sc_hd__and2_1_6/B
+ VSUBS tt_asw_3v3_7/VDPWR tt_asw_3v3_1/ctrl VSUBS tt_asw_3v3_7/VDPWR sky130_fd_sc_hd__and2_1
Xsky130_fd_sc_hd__and2_1_4 sky130_fd_sc_hd__and2_1_4/A sky130_fd_sc_hd__and2_1_6/B
+ VSUBS tt_asw_3v3_7/VDPWR tt_asw_3v3_4/ctrl VSUBS tt_asw_3v3_7/VDPWR sky130_fd_sc_hd__and2_1
Xsky130_fd_sc_hd__and2_1_5 sky130_fd_sc_hd__and2_1_5/A sky130_fd_sc_hd__and2_1_6/B
+ VSUBS tt_asw_3v3_7/VDPWR X VSUBS tt_asw_3v3_7/VDPWR sky130_fd_sc_hd__and2_1
Xsky130_fd_sc_hd__and2_1_6 sky130_fd_sc_hd__and2_1_6/A sky130_fd_sc_hd__and2_1_6/B
+ VSUBS tt_asw_3v3_7/VDPWR tt_asw_3v3_7/ctrl VSUBS tt_asw_3v3_7/VDPWR sky130_fd_sc_hd__and2_1
Xtt_asw_3v3_0 tt_asw_3v3_7/VDPWR tt_asw_3v3_7/VAPWR tt_asw_3v3_0/ctrl tt_asw_3v3_0/mod
+ tt_asw_3v3_0/bus VSUBS tt_asw_3v3
Xtt_asw_3v3_1 tt_asw_3v3_7/VDPWR tt_asw_3v3_7/VAPWR tt_asw_3v3_1/ctrl tt_asw_3v3_1/mod
+ tt_asw_3v3_1/bus VSUBS tt_asw_3v3
Xtt_asw_3v3_2 tt_asw_3v3_7/VDPWR tt_asw_3v3_7/VAPWR tt_asw_3v3_2/ctrl tt_asw_3v3_2/mod
+ tt_asw_3v3_2/bus VSUBS tt_asw_3v3
Xtt_asw_3v3_3 tt_asw_3v3_7/VDPWR tt_asw_3v3_7/VAPWR tt_asw_3v3_3/ctrl tt_asw_3v3_3/mod
+ tt_asw_3v3_3/bus VSUBS tt_asw_3v3
Xtt_asw_3v3_4 tt_asw_3v3_7/VDPWR tt_asw_3v3_7/VAPWR tt_asw_3v3_4/ctrl tt_asw_3v3_4/mod
+ tt_asw_3v3_4/bus VSUBS tt_asw_3v3
Xtt_asw_3v3_5 tt_asw_3v3_7/VDPWR tt_asw_3v3_7/VAPWR X tt_asw_3v3_5/mod tt_asw_3v3_5/bus
+ VSUBS tt_asw_3v3
Xtt_asw_3v3_7 tt_asw_3v3_7/VDPWR tt_asw_3v3_7/VAPWR tt_asw_3v3_7/ctrl tt_asw_3v3_7/mod
+ tt_asw_3v3_7/bus VSUBS tt_asw_3v3
Xsky130_fd_sc_hd__clkinv_1_0 sky130_fd_sc_hd__clkinv_1_0/A VSUBS tt_asw_3v3_7/VDPWR
+ sky130_fd_sc_hd__clkinv_1_0/Y VSUBS tt_asw_3v3_7/VDPWR sky130_fd_sc_hd__clkinv_1
.ends

.subckt sky130_fd_pr__nfet_01v8_EDB9KC a_n33_n130# a_15_n42# a_n175_n216# a_n73_n42#
X0 a_15_n42# a_n33_n130# a_n73_n42# a_n175_n216# sky130_fd_pr__nfet_01v8 ad=1.218e+11p pd=1.42e+06u as=1.218e+11p ps=1.42e+06u w=420000u l=150000u
.ends

.subckt sky130_fd_pr__pfet_g5v0d10v5_FGL9HY a_445_118# a_n345_118# a_977_21# a_n187_118#
+ a_187_21# a_287_118# a_129_n1118# a_29_n1215# a_603_n1118# a_n445_21# a_919_118#
+ a_n819_118# a_445_n1118# a_1077_n1118# a_919_n1118# a_n661_118# a_n1077_21# a_761_118#
+ a_345_21# a_29_21# a_287_n1118# a_n129_n1215# a_761_n1118# a_n29_n1118# a_n603_n1215#
+ a_n603_21# a_n1077_n1215# a_503_n1215# a_n445_n1215# a_n1135_n1118# a_n919_n1215#
+ a_n503_n1118# a_345_n1215# a_n1135_118# a_503_21# w_n1335_n1415# a_819_n1215# a_n287_n1215#
+ a_n345_n1118# a_n761_n1215# a_n819_n1118# a_187_n1215# a_1077_118# a_n977_118# a_661_n1215#
+ a_n919_21# a_n187_n1118# a_129_118# a_n129_21# a_n761_21# a_n661_n1118# a_977_n1215#
+ a_819_21# a_n977_n1118# a_n29_118# a_661_21# a_603_118# a_n503_118# a_n287_21#
X0 a_603_118# a_503_21# a_445_118# w_n1335_n1415# sky130_fd_pr__pfet_g5v0d10v5 ad=1.45e+12p pd=1.058e+07u as=1.45e+12p ps=1.058e+07u w=5e+06u l=500000u
X1 a_n503_n1118# a_n603_n1215# a_n661_n1118# w_n1335_n1415# sky130_fd_pr__pfet_g5v0d10v5 ad=1.45e+12p pd=1.058e+07u as=1.45e+12p ps=1.058e+07u w=5e+06u l=500000u
X2 a_287_n1118# a_187_n1215# a_129_n1118# w_n1335_n1415# sky130_fd_pr__pfet_g5v0d10v5 ad=1.45e+12p pd=1.058e+07u as=1.45e+12p ps=1.058e+07u w=5e+06u l=500000u
X3 a_n661_n1118# a_n761_n1215# a_n819_n1118# w_n1335_n1415# sky130_fd_pr__pfet_g5v0d10v5 ad=0p pd=0u as=1.45e+12p ps=1.058e+07u w=5e+06u l=500000u
X4 a_n29_n1118# a_n129_n1215# a_n187_n1118# w_n1335_n1415# sky130_fd_pr__pfet_g5v0d10v5 ad=1.45e+12p pd=1.058e+07u as=1.45e+12p ps=1.058e+07u w=5e+06u l=500000u
X5 a_n977_118# a_n1077_21# a_n1135_118# w_n1335_n1415# sky130_fd_pr__pfet_g5v0d10v5 ad=1.45e+12p pd=1.058e+07u as=1.45e+12p ps=1.058e+07u w=5e+06u l=500000u
X6 a_n187_n1118# a_n287_n1215# a_n345_n1118# w_n1335_n1415# sky130_fd_pr__pfet_g5v0d10v5 ad=0p pd=0u as=1.45e+12p ps=1.058e+07u w=5e+06u l=500000u
X7 a_129_n1118# a_29_n1215# a_n29_n1118# w_n1335_n1415# sky130_fd_pr__pfet_g5v0d10v5 ad=0p pd=0u as=0p ps=0u w=5e+06u l=500000u
X8 a_n661_118# a_n761_21# a_n819_118# w_n1335_n1415# sky130_fd_pr__pfet_g5v0d10v5 ad=1.45e+12p pd=1.058e+07u as=1.45e+12p ps=1.058e+07u w=5e+06u l=500000u
X9 a_129_118# a_29_21# a_n29_118# w_n1335_n1415# sky130_fd_pr__pfet_g5v0d10v5 ad=1.45e+12p pd=1.058e+07u as=1.45e+12p ps=1.058e+07u w=5e+06u l=500000u
X10 a_445_n1118# a_345_n1215# a_287_n1118# w_n1335_n1415# sky130_fd_pr__pfet_g5v0d10v5 ad=1.45e+12p pd=1.058e+07u as=0p ps=0u w=5e+06u l=500000u
X11 a_n187_118# a_n287_21# a_n345_118# w_n1335_n1415# sky130_fd_pr__pfet_g5v0d10v5 ad=1.45e+12p pd=1.058e+07u as=1.45e+12p ps=1.058e+07u w=5e+06u l=500000u
X12 a_n819_118# a_n919_21# a_n977_118# w_n1335_n1415# sky130_fd_pr__pfet_g5v0d10v5 ad=0p pd=0u as=0p ps=0u w=5e+06u l=500000u
X13 a_919_n1118# a_819_n1215# a_761_n1118# w_n1335_n1415# sky130_fd_pr__pfet_g5v0d10v5 ad=1.45e+12p pd=1.058e+07u as=1.45e+12p ps=1.058e+07u w=5e+06u l=500000u
X14 a_n345_118# a_n445_21# a_n503_118# w_n1335_n1415# sky130_fd_pr__pfet_g5v0d10v5 ad=0p pd=0u as=1.45e+12p ps=1.058e+07u w=5e+06u l=500000u
X15 a_1077_n1118# a_977_n1215# a_919_n1118# w_n1335_n1415# sky130_fd_pr__pfet_g5v0d10v5 ad=1.45e+12p pd=1.058e+07u as=0p ps=0u w=5e+06u l=500000u
X16 a_n503_118# a_n603_21# a_n661_118# w_n1335_n1415# sky130_fd_pr__pfet_g5v0d10v5 ad=0p pd=0u as=0p ps=0u w=5e+06u l=500000u
X17 a_n345_n1118# a_n445_n1215# a_n503_n1118# w_n1335_n1415# sky130_fd_pr__pfet_g5v0d10v5 ad=0p pd=0u as=0p ps=0u w=5e+06u l=500000u
X18 a_n29_118# a_n129_21# a_n187_118# w_n1335_n1415# sky130_fd_pr__pfet_g5v0d10v5 ad=0p pd=0u as=0p ps=0u w=5e+06u l=500000u
X19 a_n819_n1118# a_n919_n1215# a_n977_n1118# w_n1335_n1415# sky130_fd_pr__pfet_g5v0d10v5 ad=0p pd=0u as=1.45e+12p ps=1.058e+07u w=5e+06u l=500000u
X20 a_1077_118# a_977_21# a_919_118# w_n1335_n1415# sky130_fd_pr__pfet_g5v0d10v5 ad=1.45e+12p pd=1.058e+07u as=1.45e+12p ps=1.058e+07u w=5e+06u l=500000u
X21 a_n977_n1118# a_n1077_n1215# a_n1135_n1118# w_n1335_n1415# sky130_fd_pr__pfet_g5v0d10v5 ad=0p pd=0u as=1.45e+12p ps=1.058e+07u w=5e+06u l=500000u
X22 a_761_118# a_661_21# a_603_118# w_n1335_n1415# sky130_fd_pr__pfet_g5v0d10v5 ad=1.45e+12p pd=1.058e+07u as=0p ps=0u w=5e+06u l=500000u
X23 a_603_n1118# a_503_n1215# a_445_n1118# w_n1335_n1415# sky130_fd_pr__pfet_g5v0d10v5 ad=1.45e+12p pd=1.058e+07u as=0p ps=0u w=5e+06u l=500000u
X24 a_287_118# a_187_21# a_129_118# w_n1335_n1415# sky130_fd_pr__pfet_g5v0d10v5 ad=1.45e+12p pd=1.058e+07u as=0p ps=0u w=5e+06u l=500000u
X25 a_761_n1118# a_661_n1215# a_603_n1118# w_n1335_n1415# sky130_fd_pr__pfet_g5v0d10v5 ad=0p pd=0u as=0p ps=0u w=5e+06u l=500000u
X26 a_919_118# a_819_21# a_761_118# w_n1335_n1415# sky130_fd_pr__pfet_g5v0d10v5 ad=0p pd=0u as=0p ps=0u w=5e+06u l=500000u
X27 a_445_118# a_345_21# a_287_118# w_n1335_n1415# sky130_fd_pr__pfet_g5v0d10v5 ad=0p pd=0u as=0p ps=0u w=5e+06u l=500000u
.ends

.subckt sky130_fd_sc_hd__clkinv_16 A VGND VPWR Y VNB VPB
X0 VGND A Y VNB sky130_fd_pr__nfet_01v8 ad=1.0605e+12p pd=1.261e+07u as=1.0059e+12p ps=1.151e+07u w=420000u l=150000u
X1 Y A VPWR VPB sky130_fd_pr__pfet_01v8_hvt ad=3.515e+12p pd=3.103e+07u as=3.655e+12p ps=3.331e+07u w=1e+06u l=150000u
X2 VPWR A Y VPB sky130_fd_pr__pfet_01v8_hvt ad=0p pd=0u as=0p ps=0u w=1e+06u l=150000u
X3 Y A VPWR VPB sky130_fd_pr__pfet_01v8_hvt ad=0p pd=0u as=0p ps=0u w=1e+06u l=150000u
X4 VGND A Y VNB sky130_fd_pr__nfet_01v8 ad=0p pd=0u as=0p ps=0u w=420000u l=150000u
X5 VPWR A Y VPB sky130_fd_pr__pfet_01v8_hvt ad=0p pd=0u as=0p ps=0u w=1e+06u l=150000u
X6 Y A VGND VNB sky130_fd_pr__nfet_01v8 ad=0p pd=0u as=0p ps=0u w=420000u l=150000u
X7 VGND A Y VNB sky130_fd_pr__nfet_01v8 ad=0p pd=0u as=0p ps=0u w=420000u l=150000u
X8 VPWR A Y VPB sky130_fd_pr__pfet_01v8_hvt ad=0p pd=0u as=0p ps=0u w=1e+06u l=150000u
X9 VPWR A Y VPB sky130_fd_pr__pfet_01v8_hvt ad=0p pd=0u as=0p ps=0u w=1e+06u l=150000u
X10 Y A VGND VNB sky130_fd_pr__nfet_01v8 ad=0p pd=0u as=0p ps=0u w=420000u l=150000u
X11 Y A VPWR VPB sky130_fd_pr__pfet_01v8_hvt ad=0p pd=0u as=0p ps=0u w=1e+06u l=150000u
X12 VPWR A Y VPB sky130_fd_pr__pfet_01v8_hvt ad=0p pd=0u as=0p ps=0u w=1e+06u l=150000u
X13 VGND A Y VNB sky130_fd_pr__nfet_01v8 ad=0p pd=0u as=0p ps=0u w=420000u l=150000u
X14 Y A VPWR VPB sky130_fd_pr__pfet_01v8_hvt ad=0p pd=0u as=0p ps=0u w=1e+06u l=150000u
X15 VPWR A Y VPB sky130_fd_pr__pfet_01v8_hvt ad=0p pd=0u as=0p ps=0u w=1e+06u l=150000u
X16 Y A VPWR VPB sky130_fd_pr__pfet_01v8_hvt ad=0p pd=0u as=0p ps=0u w=1e+06u l=150000u
X17 Y A VPWR VPB sky130_fd_pr__pfet_01v8_hvt ad=0p pd=0u as=0p ps=0u w=1e+06u l=150000u
X18 Y A VGND VNB sky130_fd_pr__nfet_01v8 ad=0p pd=0u as=0p ps=0u w=420000u l=150000u
X19 VGND A Y VNB sky130_fd_pr__nfet_01v8 ad=0p pd=0u as=0p ps=0u w=420000u l=150000u
X20 Y A VGND VNB sky130_fd_pr__nfet_01v8 ad=0p pd=0u as=0p ps=0u w=420000u l=150000u
X21 VGND A Y VNB sky130_fd_pr__nfet_01v8 ad=0p pd=0u as=0p ps=0u w=420000u l=150000u
X22 Y A VPWR VPB sky130_fd_pr__pfet_01v8_hvt ad=0p pd=0u as=0p ps=0u w=1e+06u l=150000u
X23 VPWR A Y VPB sky130_fd_pr__pfet_01v8_hvt ad=0p pd=0u as=0p ps=0u w=1e+06u l=150000u
X24 Y A VPWR VPB sky130_fd_pr__pfet_01v8_hvt ad=0p pd=0u as=0p ps=0u w=1e+06u l=150000u
X25 Y A VPWR VPB sky130_fd_pr__pfet_01v8_hvt ad=0p pd=0u as=0p ps=0u w=1e+06u l=150000u
X26 VPWR A Y VPB sky130_fd_pr__pfet_01v8_hvt ad=0p pd=0u as=0p ps=0u w=1e+06u l=150000u
X27 Y A VGND VNB sky130_fd_pr__nfet_01v8 ad=0p pd=0u as=0p ps=0u w=420000u l=150000u
X28 Y A VPWR VPB sky130_fd_pr__pfet_01v8_hvt ad=0p pd=0u as=0p ps=0u w=1e+06u l=150000u
X29 VPWR A Y VPB sky130_fd_pr__pfet_01v8_hvt ad=0p pd=0u as=0p ps=0u w=1e+06u l=150000u
X30 VPWR A Y VPB sky130_fd_pr__pfet_01v8_hvt ad=0p pd=0u as=0p ps=0u w=1e+06u l=150000u
X31 Y A VGND VNB sky130_fd_pr__nfet_01v8 ad=0p pd=0u as=0p ps=0u w=420000u l=150000u
X32 VGND A Y VNB sky130_fd_pr__nfet_01v8 ad=0p pd=0u as=0p ps=0u w=420000u l=150000u
X33 VPWR A Y VPB sky130_fd_pr__pfet_01v8_hvt ad=0p pd=0u as=0p ps=0u w=1e+06u l=150000u
X34 Y A VGND VNB sky130_fd_pr__nfet_01v8 ad=0p pd=0u as=0p ps=0u w=420000u l=150000u
X35 Y A VPWR VPB sky130_fd_pr__pfet_01v8_hvt ad=0p pd=0u as=0p ps=0u w=1e+06u l=150000u
X36 Y A VGND VNB sky130_fd_pr__nfet_01v8 ad=0p pd=0u as=0p ps=0u w=420000u l=150000u
X37 VPWR A Y VPB sky130_fd_pr__pfet_01v8_hvt ad=0p pd=0u as=0p ps=0u w=1e+06u l=150000u
X38 Y A VPWR VPB sky130_fd_pr__pfet_01v8_hvt ad=0p pd=0u as=0p ps=0u w=1e+06u l=150000u
X39 VGND A Y VNB sky130_fd_pr__nfet_01v8 ad=0p pd=0u as=0p ps=0u w=420000u l=150000u
.ends

.subckt mosbius_col8 X tt_asw_3v3_4/mod tt_asw_3v3_5/bus tt_asw_3v3_1/mod tt_asw_3v3_2/bus
+ tt_asw_3v3_5/mod tt_asw_3v3_6/bus tt_asw_3v3_7/VAPWR tt_asw_3v3_2/mod tt_asw_3v3_3/bus
+ tt_asw_3v3_0/bus sky130_fd_sc_hd__clkinv_1_0/A sky130_fd_sc_hd__and2_1_4/A tt_asw_3v3_6/mod
+ tt_asw_3v3_7/bus tt_asw_3v3_3/mod sky130_fd_sc_hd__dfrtp_1_7/D tt_asw_3v3_4/bus
+ tt_asw_3v3_0/mod sky130_fd_sc_hd__and2_1_7/B tt_asw_3v3_1/bus sky130_fd_sc_hd__dfrtp_1_7/RESET_B
+ tt_asw_3v3_7/mod tt_asw_3v3_7/VDPWR VSUBS
Xsky130_fd_sc_hd__dfrtp_1_0 sky130_fd_sc_hd__clkinv_1_0/Y sky130_fd_sc_hd__and2_1_5/A
+ sky130_fd_sc_hd__dfrtp_1_7/RESET_B VSUBS tt_asw_3v3_7/VDPWR sky130_fd_sc_hd__and2_1_1/A
+ VSUBS tt_asw_3v3_7/VDPWR sky130_fd_sc_hd__dfrtp_1
Xsky130_fd_sc_hd__dfrtp_1_1 sky130_fd_sc_hd__clkinv_1_0/Y sky130_fd_sc_hd__and2_1_1/A
+ sky130_fd_sc_hd__dfrtp_1_7/RESET_B VSUBS tt_asw_3v3_7/VDPWR sky130_fd_sc_hd__and2_1_6/A
+ VSUBS tt_asw_3v3_7/VDPWR sky130_fd_sc_hd__dfrtp_1
Xsky130_fd_sc_hd__dfrtp_1_2 sky130_fd_sc_hd__clkinv_1_0/Y sky130_fd_sc_hd__and2_1_6/A
+ sky130_fd_sc_hd__dfrtp_1_7/RESET_B VSUBS tt_asw_3v3_7/VDPWR sky130_fd_sc_hd__and2_1_4/A
+ VSUBS tt_asw_3v3_7/VDPWR sky130_fd_sc_hd__dfrtp_1
Xsky130_fd_sc_hd__dfrtp_1_3 sky130_fd_sc_hd__clkinv_1_0/Y sky130_fd_sc_hd__and2_1_7/A
+ sky130_fd_sc_hd__dfrtp_1_7/RESET_B VSUBS tt_asw_3v3_7/VDPWR sky130_fd_sc_hd__and2_1_5/A
+ VSUBS tt_asw_3v3_7/VDPWR sky130_fd_sc_hd__dfrtp_1
Xsky130_fd_sc_hd__and2_1_0 sky130_fd_sc_hd__and2_1_0/A sky130_fd_sc_hd__and2_1_7/B
+ VSUBS tt_asw_3v3_7/VDPWR tt_asw_3v3_3/ctrl VSUBS tt_asw_3v3_7/VDPWR sky130_fd_sc_hd__and2_1
Xsky130_fd_sc_hd__dfrtp_1_4 sky130_fd_sc_hd__clkinv_1_0/Y sky130_fd_sc_hd__and2_1_2/A
+ sky130_fd_sc_hd__dfrtp_1_7/RESET_B VSUBS tt_asw_3v3_7/VDPWR sky130_fd_sc_hd__and2_1_0/A
+ VSUBS tt_asw_3v3_7/VDPWR sky130_fd_sc_hd__dfrtp_1
Xsky130_fd_sc_hd__and2_1_1 sky130_fd_sc_hd__and2_1_1/A sky130_fd_sc_hd__and2_1_7/B
+ VSUBS tt_asw_3v3_7/VDPWR tt_asw_3v3_0/ctrl VSUBS tt_asw_3v3_7/VDPWR sky130_fd_sc_hd__and2_1
Xsky130_fd_sc_hd__dfrtp_1_6 sky130_fd_sc_hd__clkinv_1_0/Y sky130_fd_sc_hd__and2_1_3/A
+ sky130_fd_sc_hd__dfrtp_1_7/RESET_B VSUBS tt_asw_3v3_7/VDPWR sky130_fd_sc_hd__and2_1_2/A
+ VSUBS tt_asw_3v3_7/VDPWR sky130_fd_sc_hd__dfrtp_1
Xsky130_fd_sc_hd__dfrtp_1_5 sky130_fd_sc_hd__clkinv_1_0/Y sky130_fd_sc_hd__and2_1_0/A
+ sky130_fd_sc_hd__dfrtp_1_7/RESET_B VSUBS tt_asw_3v3_7/VDPWR sky130_fd_sc_hd__and2_1_7/A
+ VSUBS tt_asw_3v3_7/VDPWR sky130_fd_sc_hd__dfrtp_1
Xsky130_fd_sc_hd__and2_1_2 sky130_fd_sc_hd__and2_1_2/A sky130_fd_sc_hd__and2_1_7/B
+ VSUBS tt_asw_3v3_7/VDPWR tt_asw_3v3_2/ctrl VSUBS tt_asw_3v3_7/VDPWR sky130_fd_sc_hd__and2_1
Xsky130_fd_sc_hd__and2_1_3 sky130_fd_sc_hd__and2_1_3/A sky130_fd_sc_hd__and2_1_7/B
+ VSUBS tt_asw_3v3_7/VDPWR tt_asw_3v3_1/ctrl VSUBS tt_asw_3v3_7/VDPWR sky130_fd_sc_hd__and2_1
Xsky130_fd_sc_hd__dfrtp_1_7 sky130_fd_sc_hd__clkinv_1_0/Y sky130_fd_sc_hd__dfrtp_1_7/D
+ sky130_fd_sc_hd__dfrtp_1_7/RESET_B VSUBS tt_asw_3v3_7/VDPWR sky130_fd_sc_hd__and2_1_3/A
+ VSUBS tt_asw_3v3_7/VDPWR sky130_fd_sc_hd__dfrtp_1
Xsky130_fd_sc_hd__and2_1_4 sky130_fd_sc_hd__and2_1_4/A sky130_fd_sc_hd__and2_1_7/B
+ VSUBS tt_asw_3v3_7/VDPWR tt_asw_3v3_6/ctrl VSUBS tt_asw_3v3_7/VDPWR sky130_fd_sc_hd__and2_1
Xsky130_fd_sc_hd__and2_1_5 sky130_fd_sc_hd__and2_1_5/A sky130_fd_sc_hd__and2_1_7/B
+ VSUBS tt_asw_3v3_7/VDPWR X VSUBS tt_asw_3v3_7/VDPWR sky130_fd_sc_hd__and2_1
Xsky130_fd_sc_hd__and2_1_6 sky130_fd_sc_hd__and2_1_6/A sky130_fd_sc_hd__and2_1_7/B
+ VSUBS tt_asw_3v3_7/VDPWR tt_asw_3v3_7/ctrl VSUBS tt_asw_3v3_7/VDPWR sky130_fd_sc_hd__and2_1
Xtt_asw_3v3_0 tt_asw_3v3_7/VDPWR tt_asw_3v3_7/VAPWR tt_asw_3v3_0/ctrl tt_asw_3v3_0/mod
+ tt_asw_3v3_0/bus VSUBS tt_asw_3v3
Xsky130_fd_sc_hd__and2_1_7 sky130_fd_sc_hd__and2_1_7/A sky130_fd_sc_hd__and2_1_7/B
+ VSUBS tt_asw_3v3_7/VDPWR tt_asw_3v3_4/ctrl VSUBS tt_asw_3v3_7/VDPWR sky130_fd_sc_hd__and2_1
Xtt_asw_3v3_1 tt_asw_3v3_7/VDPWR tt_asw_3v3_7/VAPWR tt_asw_3v3_1/ctrl tt_asw_3v3_1/mod
+ tt_asw_3v3_1/bus VSUBS tt_asw_3v3
Xtt_asw_3v3_2 tt_asw_3v3_7/VDPWR tt_asw_3v3_7/VAPWR tt_asw_3v3_2/ctrl tt_asw_3v3_2/mod
+ tt_asw_3v3_2/bus VSUBS tt_asw_3v3
Xtt_asw_3v3_3 tt_asw_3v3_7/VDPWR tt_asw_3v3_7/VAPWR tt_asw_3v3_3/ctrl tt_asw_3v3_3/mod